THERMO                                                                  
   300.000  1500.000  5000.000                                                  
AR                120186AR  1               G  0300.00   5000.00  1000.00      1
 0.02500000E+02 0.00000000E+00 0.00000000E+00 0.00000000E+00 0.00000000E+00    2
-0.07453750E+04 0.04366000E+02 0.02500000E+02 0.00000000E+00 0.00000000E+00    3
 0.00000000E+00 0.00000000E+00-0.07453750E+04 0.04366000E+02                   4
SI                      SI  1               G   200.000  6000.000 1000.        1
 2.56371361E+00-1.78466111E-04 1.79350110E-07-4.29523267E-11 3.18031914E-15    2
 5.33892074E+04 5.70013156E+00 3.76455433E+00-7.08058183E-03 1.55122642E-05    3
-1.50413025E-08 5.36989135E-12 5.32046985E+04 2.98448699E-01 5.41222513E+04    4
END                
