#
# Generated from file chem.inp
# by ck2cti on Wed May 25 17:40:57 2011
#
units(length = "cm", time = "s", quantity = "mol", act_energy = "cal/mol")


ideal_gas(name = "gas",
      elements = " Si  H  Ar ",
      species = """ AR  H2  SIH4  SI """,
      reactions = "all",
      initial_state = state(temperature = 300.0,
                        pressure = OneAtm)    )



#-------------------------------------------------------------------------------
#  Species data 
#-------------------------------------------------------------------------------

species(name = "AR",
    atoms = " Ar:1 ",
    thermo = (
       NASA( [  300.00,  1000.00], [  2.500000000E+00,   0.000000000E+00, 
                0.000000000E+00,   0.000000000E+00,   0.000000000E+00,
               -7.453750000E+02,   4.366000000E+00] ),
       NASA( [ 1000.00,  5000.00], [  2.500000000E+00,   0.000000000E+00, 
                0.000000000E+00,   0.000000000E+00,   0.000000000E+00,
               -7.453750000E+02,   4.366000000E+00] )
             ),
    note = "120186"
       )

species(name = "H2",
    atoms = " H:2 ",
    thermo = (
       NASA( [  300.00,  1407.00], [  3.451812050E+00,   6.176416730E-05, 
                1.332414870E-07,  -2.442782870E-11,  -4.063150970E-16,
               -1.033031630E+03,  -3.984057210E+00] ),
       NASA( [ 1407.00,  5000.00], [  3.394674630E+00,   1.417967200E-04, 
                1.060644970E-07,  -2.835915160E-11,   1.961667130E-15,
               -1.005384550E+03,  -3.654231120E+00] )
             )
       )

species(name = "SIH4",
    atoms = " Si:1  H:4 ",
    thermo = (
       NASA( [  300.00,  1481.00], [  1.292282580E+00,   1.544399410E-02, 
               -8.012116080E-06,   1.249572810E-09,   1.284047520E-13,
                3.133415230E+03,   1.296208880E+01] ),
       NASA( [ 1481.00,  5000.00], [  6.432667630E+00,   5.421693220E-03, 
               -1.842350990E-06,   2.851954840E-10,  -1.652566210E-14,
                1.197597590E+03,  -1.526985960E+01] )
             )
       )

species(name = "SI",
    atoms = " Si:1 ",
    thermo = (
       NASA( [  200.00,  1000.00], [  3.764554330E+00,  -7.080581830E-03, 
                1.551226420E-05,  -1.504130250E-08,   5.369891350E-12,
                5.320469850E+04,   2.984486990E-01] ),
       NASA( [ 1000.00,  6000.00], [  2.563713610E+00,  -1.784661110E-04, 
                1.793501100E-07,  -4.295232670E-11,   3.180319140E-15,
                5.338920740E+04,   5.700131560E+00] )
             )
       )



#-------------------------------------------------------------------------------
#  Reaction data 
#-------------------------------------------------------------------------------

#  Reaction 1
# Simple pyrolysis reaction 
reaction(  "SIH4 => SI + 2 H2",  [1.89000E+06, 0, 45000])
