ELEMENTS 
H  O  C  N Ar
END

SPECIES 

      h2  h  ch4  ch3  ch2  ch  ch2o  hco  co2  co 
      o2  o  oh  ho2  h2o2  h2o  c2h  hcco  c2h2  c2h3 
      c2h4  c2h5  c2h6  ch2oh  ch3o  hccoh  h2ccch  c3h2  ch2(s)  ch2co 
      c2o  hcoh  ch3oh  ch2hco  c3h6  ac3h5  pc3h5  sc3h5  ch2chcho  pc3h4 
      ac3h4  ch3co  ch2chco  ch3chco  ch3hco  chocho  ic3h7  nc3h7  c2h5oh  c2h4oh 
      ch3choh  ch3ch2o  ch2chch2o  hcooh  c3h8  hoc2h4o2  n2 ar 
END
REACTION 
  oh + h2 = h + h2o 2.14E8  1.52  3449.000000 
  o + oh = o2 + h 2.02E14  -0.40000000000000002  0.000000 
  o + h2 = oh + h 50600.0  2.6699999999999999  6290.000000 
  h + o2 (+ M) = ho2 (+ M) 4.52E13  0  0.000000 
Low/1.05E19  -1.2569999999999999  0.000000 /
  ch4/10/co/1.9/co2/3.8/h2/0/h2o/0/n2/0/
  h + o2 (+ n2) = ho2 (+ n2) 4.52E13  0  0.000000 
Low/2.03E17  -1.5900000000000001  0.000000 /
  h + o2 (+ h2) = ho2 (+ h2) 4.52E13  0  0.000000 
Low/1.52E16  -1.133  0.000000 /
  h + o2 (+ h2o) = ho2 (+ h2o) 4.52E13  0  0.000000 
Low/2.1E20  -2.4369999999999998  0.000000 /
  oh + ho2 = h2o + o2 2.13E28  -4.827  3500.000000 
DUPLICATE
  oh + ho2 = h2o + o2 9.1E14  0  10964.000000 
DUPLICATE
  h + ho2 = oh + oh 1.5E14  0  1000.000000 
  h + ho2 = h2 + o2 6.63E13  0  2126.000000 
  h + ho2 = o + h2o 3.01E13  0  1721.000000 
  o + ho2 = o2 + oh 3.25E13  0  0.000000 
  oh + oh = o + h2o 35700.0  2.3999999999999999  -2112.000000 
  h + h + M = h2 + M 1.0E18  -1  0.000000 
  h2/0/h2o/0/
  h + h + h2 = h2 + h2 9.2E16  -0.59999999999999998  0.000000 
  h + h + h2o = h2 + h2o 6.0E19  -1.25  0.000000 
  h + oh + M = h2o + M 2.21E22  -2  0.000000 
  h2o/6.4/
  h + o + M = oh + M 4.71E18  -1  0.000000 
  h2o/6.4/
  o + o + M = o2 + M 1.89E13  0  -1788.000000 
  ho2 + ho2 = h2o2 + o2 4.2E14  0  11982.000000 
DUPLICATE
  ho2 + ho2 = h2o2 + o2 1.3E11  0  -1629.000000 
DUPLICATE
  oh + oh (+ M) = h2o2 (+ M) 1.24E14  -0.37  0.000000 
Low/3.04E30  -4.6299999999999999  2049.000000 /
Troe/0.47 100 2000 1e+015 /
  h2o2 + h = ho2 + h2 1980000.0  2  2435.000000 
  h2o2 + h = oh + h2o 3.07E13  0  4217.000000 
  h2o2 + o = oh + ho2 9550000.0  2  3970.000000 
  h2o2 + oh = h2o + ho2 2.4  4.0419999999999998  -2162.000000 
  ch3 + ch3 (+ M) = c2h6 (+ M) 9.22E16  -1.1739999999999999  636.000000 
Low/1.14E36  -5.2460000000000004  1705.000000 /
  co/2/co2/3/h2/2/h2o/5/
Troe/0.405 1120 69.6 1e+015 /
  ch3 + h (+ M) = ch4 (+ M) 2.14E15  -0.40000000000000002  0.000000 
Low/3.31E30  -4  2108.000000 /
  co/2/co2/3/h2/2/h2o/5/
Troe/0 1e-015 1e-015 40 /
  ch4 + h = ch3 + h2 22000.0  3  8750.000000 
  ch4 + oh = ch3 + h2o 4190000.0  2  2547.000000 
  ch4 + o = ch3 + oh 6.92E8  1.5600000000000001  8485.000000 
  ch4 + ho2 = ch3 + h2o2 1.12E13  0  24640.000000 
  ch3 + ho2 = ch3o + oh 7.0E12  0  0.000000 
  ch3 + ho2 = ch4 + o2 3.0E12  0  0.000000 
  ch3 + o = ch2o + h 8.0E13  0  0.000000 
  ch3 + o2 = ch3o + o 1.45E13  0  29209.000000 
  ch3 + o2 = ch2o + oh 2.51E11  0  14640.000000 
  ch3o + h = ch3 + oh 1.0E13  0  0.000000 
  ch2oh + h = ch3 + oh 1.0E13  0  0.000000 
  ch3 + oh = ch2(s) + h2o 2.0E13  0  550.000000 
  ch3 + oh = hcoh + h2 1.0E10  0  -415.000000 
  ch3 + oh = ch2 + h2o 3000000.0  2  2500.000000 
  ch3 + h = ch2 + h2 9.0E13  0  15100.000000 
  ch3 + M = ch + h2 + M 6.9E14  0  82469.000000 
  ch3 + M = ch2 + h + M 1.9E16  0  91411.000000 
  ch3 + oh (+ M) = ch3oh (+ M) 8.7E13  0.10000000000000001  0.000000 
Low/8.84E41  -7.4000000000000004  626.000000 /
  co/2/co2/3/h2/2/h2o/10/
Troe/0.025 1e-015 8000 3000 /
  ch3oh (+ M) = ch2(s) + h2o (+ M) 2.837E10  1  83871.000000 
Low/1.78E49  -8.8100000000000005  93369.000000 /
  co/2/co2/3/h2/2/h2o/10/
Troe/0.9 740 980 5100 /
  ch3oh (+ M) = hcoh + h2 (+ M) 4.2E9  1.1200000000000001  85604.000000 
Low/5.0200000000000005E47  -8.4019999999999992  94823.000000 /
  co/2/co2/3/h2/2/h2o/10/
Troe/0.9 615 915 4615 /
  ch3oh (+ M) = ch2o + h2 (+ M) 2.03E9  1  91443.000000 
Low/9.784E47  -8.4000000000000004  101761.000000 /
  co/2/co2/3/h2/2/h2o/10/
Troe/0.9 825 1125 5700 /
  ch3oh + oh = ch2oh + h2o 261000.0  2.1819999999999999  -1344.000000 
  ch3oh + oh = ch3o + h2o 2620000.0  2.056  916.000000 
  ch3oh + o = ch2oh + oh 388000.0  2.5  3080.000000 
  ch3oh + h = ch2oh + h2 1.7E7  2.1000000000000001  4868.000000 
  ch3oh + h = ch3o + h2 4240000.0  2.1000000000000001  4868.000000 
  ch3oh + ch3 = ch2oh + ch4 31.9  3.1699999999999999  7171.000000 
  ch3oh + ch3 = ch3o + ch4 14.5  3.1000000000000001  6935.000000 
  ch3oh + ho2 = ch2oh + h2o2 9.64E10  0  12578.000000 
  ch2o + h (+ M) = ch3o (+ M) 5.4E11  0.45400000000000001  2600.000000 
Low/1.5E30  -4.7999999999999998  5560.000000 /
  h2o/5/
Troe/0.758 94 1555 4200 /
  ch2o + h (+ M) = ch2oh (+ M) 5.4E11  0.45400000000000001  3600.000000 
Low/9.1E31  -4.8200000000000003  6530.000000 /
  h2o/5/
Troe/0.7187 103 1291 4160 /
  ch3o + ch3 = ch2o + ch4 1.2E13  0  0.000000 
  ch3o + h = ch2o + h2 2.0E13  0  0.000000 
  ch2oh + h = ch2o + h2 2.0E13  0  0.000000 
  ch3o + oh = ch2o + h2o 1.0E13  0  0.000000 
  ch2oh + oh = ch2o + h2o 1.0E13  0  0.000000 
  ch3o + o = ch2o + oh 1.0E13  0  0.000000 
  ch2oh + o = ch2o + oh 1.0E13  0  0.000000 
  ch3o + o2 = ch2o + ho2 6.3E10  0  2600.000000 
  ch3o + co = ch3 + co2 468.0  3.1600000000000001  5380.000000 
  ch2oh + o2 = ch2o + ho2 1.57E15  -1  0.000000 
DUPLICATE
  ch2oh + o2 = ch2o + ho2 7.23E13  0  3577.000000 
DUPLICATE
  hcoh + oh = hco + h2o 2.0E13  0  0.000000 
  hcoh + h = ch2o + h 2.0E14  0  0.000000 
  hcoh + o = co + oh + h 8.0E13  0  0.000000 
  hcoh + o2 = co + oh + oh 1.0E13  0  0.000000 
  hcoh + o2 = co2 + h2o 1.0E13  0  0.000000 
  hcoh = ch2o 2.1E19  -3.0699999999999998  31700.000000 
  ch2 + h = ch + h2 1.0E18  -1.5600000000000001  0.000000 
  ch2 + oh = ch + h2o 1.13E7  2  3000.000000 
  ch2 + oh = ch2o + h 2.5E13  0  0.000000 
  ch2 + co2 = ch2o + co 1.1E11  0  1000.000000 
  ch2 + o = co + h + h 5.0E13  0  0.000000 
  ch2 + o = co + h2 3.0E13  0  0.000000 
  ch2 + o2 = ch2o + o 3.29E21  -3.2999999999999998  2868.000000 
  ch2 + o2 = co2 + h + h 3.29E21  -3.2999999999999998  2868.000000 
  ch2 + o2 = co2 + h2 1.01E21  -3.2999999999999998  1508.000000 
  ch2 + o2 = co + h2o 7.28E19  -2.54  1809.000000 
  ch2 + o2 = hco + oh 1.29E20  -3.2999999999999998  284.000000 
  ch2 + ch3 = c2h4 + h 4.0E13  0  0.000000 
  ch2 + ch2 = c2h2 + h + h 4.0E13  0  0.000000 
  ch2 + hcco = c2h3 + co 3.0E13  0  0.000000 
  ch2 + c2h2 = h2ccch + h 1.2E13  0  6600.000000 
  ch2(s) + M = ch2 + M 1.0E13  0  0.000000 
  c2h2/4/h/12/h2o/3/
  ch2(s) + ch4 = ch3 + ch3 4.0E13  0  0.000000 
  ch2(s) + c2h6 = ch3 + c2h5 1.2E14  0  0.000000 
  ch2(s) + o2 = co + oh + h 7.0E13  0  0.000000 
  ch2(s) + h2 = ch3 + h 7.0E13  0  0.000000 
  ch2(s) + c2h2 = h2ccch + h 1.5E14  0  0.000000 
  ch2(s) + c2h4 = ac3h5 + h 1.3E14  0  0.000000 
  ch2(s) + o = co + h + h 3.0E13  0  0.000000 
  ch2(s) + oh = ch2o + h 3.0E13  0  0.000000 
  ch2(s) + h = ch + h2 3.0E13  0  0.000000 
  ch2(s) + co2 = ch2o + co 3.0E12  0  0.000000 
  ch2(s) + ch3 = c2h4 + h 2.0E13  0  0.000000 
  ch2(s) + ch2co = c2h4 + co 1.6E14  0  0.000000 
  ch + o2 = hco + o 3.3E13  0  0.000000 
  ch + o = co + h 5.7E13  0  0.000000 
  ch + oh = hco + h 3.0E13  0  0.000000 
  ch + co2 = hco + co 3.4E12  0  690.000000 
  ch + h2o = ch2o + h 1.17E15  -0.75  0.000000 
  ch + ch2o = ch2co + h 9.46E13  0  -515.000000 
  ch + c2h2 = c3h2 + h 1.0E14  0  0.000000 
  ch + ch2 = c2h2 + h 4.0E13  0  0.000000 
  ch + ch3 = c2h3 + h 3.0E13  0  0.000000 
  ch + ch4 = c2h4 + h 6.0E13  0  0.000000 
  hcooh + M = co + h2o + M 2.09E14  0  40400.000000 
  hcooh + M = co2 + h2 + M 1.35E15  0  60600.000000 
  hcooh + oh = co2 + h2o + h 2620000.0  2.056  916.000000 
  hcooh + oh = co + h2o + oh 1.85E7  1.5  -962.000000 
  hcooh + h = co2 + h2 + h 4240000.0  2.1000000000000001  4868.000000 
  hcooh + h = co + h2 + oh 6.06E13  -0.34999999999999998  2988.000000 
  hcooh + ch3 = ch4 + co + oh 3.8999999999999997E-7  5.7999999999999998  2200.000000 
  hcooh + ho2 = co + h2o2 + oh 2.4E19  -2.2000000000000002  14030.000000 
  hcooh + o = co + oh + oh 1.77E18  -1.8999999999999999  2975.000000 
  ch2o + oh = hco + h2o 3.43E9  1.1799999999999999  -447.000000 
  ch2o + h = hco + h2 2.19E8  1.77  3000.000000 
  ch2o + M = hco + h + M 3.31E16  0  81000.000000 
  ch2o + o = hco + oh 1.8E13  0  3080.000000 
  hco + o2 = co + ho2 7.58E12  0  410.000000 
  hco + M = h + co + M 1.86E17  -1  17000.000000 
  ch4/2.81/co/1.87/co2/3/h2/1.87/h2o/5/
  hco + oh = h2o + co 1.0E14  0  0.000000 
  hco + h = co + h2 1.19E13  0.25  0.000000 
  hco + o = co + oh 3.0E13  0  0.000000 
  hco + o = co2 + h 3.0E13  0  0.000000 
  co + oh = co2 + h 9420.0  2.25  -2351.000000 
  co + o + M = co2 + M 6.17E14  0  3000.000000 
  co + o2 = co2 + o 2.53E12  0  47688.000000 
  co + ho2 = co2 + oh 5.8E13  0  22934.000000 
  c2h5oh (+ M) = ch3 + ch2oh (+ M) 5.94E23  -1.6799999999999999  91163.000000 
Low/2.88E85  -18.899999999999999  109914.000000 /
  co/2/co2/3/h2/2/h2o/5/
Troe/0.5 200 890 4600 /
  c2h5oh (+ M) = c2h5 + oh (+ M) 1.25E23  -1.54  96005.000000 
Low/3.252E85  -18.809999999999999  114930.000000 /
  co/2/co2/3/h2/2/h2o/5/
Troe/0.5 300 900 5000 /
  c2h5oh (+ M) = c2h4 + h2o (+ M) 2.79E13  0.089999999999999997  66136.000000 
Low/2.5700000000000003E83  -18.850000000000001  86452.000000 /
  h2o/5/
Troe/0.7 350 800 3800 /
  c2h5oh (+ M) = ch3hco + h2 (+ M) 7.24E11  0.095000000000000001  91007.000000 
Low/4.460000000000001E87  -19.420000000000002  115586.000000 /
  h2o/5/
Troe/0.9 900 1100 3500 /
  c2h5oh + oh = c2h4oh + h2o 1.74E11  0.27000000000000002  600.000000 
  c2h5oh + oh = ch3choh + h2o 4.64E11  0.14999999999999999  0.000000 
  c2h5oh + oh = ch3ch2o + h2o 7.46E11  0.29999999999999999  1634.000000 
  c2h5oh + h = c2h4oh + h2 1.23E7  1.8  5098.000000 
  c2h5oh + h = ch3choh + h2 2.58E7  1.6499999999999999  2827.000000 
  c2h5oh + h = ch3ch2o + h2 1.5E7  1.6000000000000001  3038.000000 
  c2h5oh + o = c2h4oh + oh 9.41E7  1.7  5459.000000 
  c2h5oh + o = ch3choh + oh 1.88E7  1.8500000000000001  1824.000000 
  c2h5oh + o = ch3ch2o + oh 1.58E7  2  4448.000000 
  c2h5oh + ch3 = c2h4oh + ch4 219.0  3.1800000000000002  9622.000000 
  c2h5oh + ch3 = ch3choh + ch4 728.0  2.9900000000000002  7948.000000 
  c2h5oh + ch3 = ch3ch2o + ch4 145.0  2.9900000000000002  7649.000000 
  c2h5oh + ho2 = ch3choh + h2o2 8200.0  2.5499999999999998  10750.000000 
  c2h5oh + ho2 = c2h4oh + h2o2 12300.0  2.5499999999999998  15750.000000 
  c2h5oh + ho2 = ch3ch2o + h2o2 2.5E12  0  24000.000000 
  ch3ch2o + M = ch3hco + h + M 1.16E35  -5.8899999999999997  25274.000000 
  ch3ch2o + M = ch3 + ch2o + M 1.35E38  -6.96  23800.000000 
  ch3ch2o + o2 = ch3hco + ho2 4.0E10  0  1100.000000 
  ch3ch2o + co = c2h5 + co2 468.0  3.1600000000000001  5380.000000 
  ch3ch2o + h = ch3 + ch2oh 3.0E13  0  0.000000 
  ch3ch2o + h = c2h4 + h2o 3.0E13  0  0.000000 
  ch3ch2o + oh = ch3hco + h2o 1.0E13  0  0.000000 
  ch3choh + o2 = ch3hco + ho2 4.82E14  0  5017.000000 
DUPLICATE
  ch3choh + o2 = ch3hco + ho2 8.43E15  -1.2  0.000000 
DUPLICATE
  ch3choh + ch3 = c3h6 + h2o 1.0E13  0  0.000000 
  ch3choh + o = ch3hco + oh 1.0E14  0  0.000000 
  ch3choh + h = c2h4 + h2o 3.0E13  0  0.000000 
  ch3choh + h = ch3 + ch2oh 3.0E13  0  0.000000 
  ch3choh + ho2 = ch3hco + oh + oh 4.0E13  0  0.000000 
  ch3choh + oh = ch3hco + h2o 5.0E12  0  0.000000 
  ch3choh + M = ch3hco + h + M 1.0E14  0  25000.000000 
  ch3hco + oh = ch3co + h2o 9240000.0  1.5  -962.000000 
  ch3hco + oh = ch2hco + h2o 172000.0  2.3999999999999999  815.000000 
  ch3hco + oh = ch3 + hcooh 3.0E15  -1.0760000000000001  0.000000 
  ch3hco + o = ch3co + oh 1.77E18  -1.8999999999999999  2975.000000 
  ch3hco + o = ch2hco + oh 3.72E13  -0.20000000000000001  3556.000000 
  ch3hco + h = ch3co + h2 4.66E13  -0.34999999999999998  2988.000000 
  ch3hco + h = ch2hco + h2 1.85E12  0.40000000000000002  5359.000000 
  ch3hco + ch3 = ch3co + ch4 3.8999999999999997E-7  5.7999999999999998  2200.000000 
  ch3hco + ch3 = ch2hco + ch4 24.5  3.1499999999999999  5727.000000 
  ch3hco + ho2 = ch3co + h2o2 2.4E19  -2.2000000000000002  14030.000000 
  ch3hco + ho2 = ch2hco + h2o2 2.32E11  0.40000000000000002  14864.000000 
  ch3hco + o2 = ch3co + ho2 1.0E14  0  42200.000000 
  c2h6 + ch3 = c2h5 + ch4 0.55  4  8300.000000 
  c2h6 + h = c2h5 + h2 540.0  3.5  5210.000000 
  c2h6 + o = c2h5 + oh 3.0E7  2  5115.000000 
  c2h6 + oh = c2h5 + h2o 7230000.0  2  864.000000 
  c2h5 + h = c2h4 + h2 1.25E14  0  8000.000000 
  c2h5 + h = ch3 + ch3 3.0E13  0  0.000000 
  c2h5 + h = c2h6 3.0E13  0  0.000000 
  c2h5 + oh = c2h4 + h2o 4.0E13  0  0.000000 
  c2h5 + o = ch3 + ch2o 1.0E14  0  0.000000 
  c2h5 + ho2 = c2h6 + o2 3.0E12  0  0.000000 
  c2h5 + ho2 = ch3ch2o + oh 3.0E13  0  0.000000 
  c2h5 + o2 = c2h4 + ho2 2.8899999999999998E28  -5.4000000000000004  7585.000000 
  c2h5 + o2 = ch3hco + oh 4.9E11  -0.47999999999999998  8357.000000 
  c2h4 + oh = c2h4oh 1.29E12  0  -817.000000 
  c2h4oh + o2 = hoc2h4o2 1.0E12  0  -1100.000000 
  hoc2h4o2 = ch2o + ch2o + oh 6.0E10  0  24500.000000 
  c2h4 + oh = c2h3 + h2o 2.02E13  0  5936.000000 
  c2h4 + o = ch3 + hco 1.02E7  1.8799999999999999  179.000000 
  c2h4 + o = ch2hco + h 3390000.0  1.8799999999999999  179.000000 
  c2h4 + ch3 = c2h3 + ch4 6.62  3.7000000000000002  9500.000000 
  c2h4 + h = c2h3 + h2 3.36E-7  6  1692.000000 
  c2h4 + h (+ M) = c2h5 (+ M) 1.08E12  0.45400000000000001  1822.000000 
Low/1.112E34  -5  4448.000000 /
  co/2/co2/3/h2/2/h2o/5/
Troe/1 1e-015 95 200 /
  c2h4 (+ M) = c2h2 + h2 (+ M) 1.8E14  0  87000.000000 
Low/1.5E15  0  55443.000000 /
  c2h3 + h (+ M) = c2h4 (+ M) 6.1E12  0.27000000000000002  280.000000 
Low/9.8E29  -3.8599999999999999  3320.000000 /
  h2o/5/
Troe/0.782 208 2663 6095 /
  c2h3 + h = c2h2 + h2 9.0E13  0  0.000000 
  c2h3 + o = ch2co + h 3.0E13  0  0.000000 
  c2h3 + o2 = ch2o + hco 1.7000000000000003E29  -5.3120000000000003  6500.000000 
  c2h3 + o2 = ch2hco + o 5.5E14  -0.61099999999999999  5260.000000 
  c2h3 + o2 = c2h2 + ho2 2.12E-6  6  9484.000000 
  c2h3 + oh = c2h2 + h2o 2.0E13  0  0.000000 
  c2h3 + c2h = c2h2 + c2h2 3.0E13  0  0.000000 
  c2h3 + ch = ch2 + c2h2 5.0E13  0  0.000000 
  c2h3 + ch3 = ac3h5 + h 473.0  3.7000000000000002  5677.000000 
  c2h3 + ch3 = c3h6 4.46E56  -13  13865.000000 
  c2h3 + ch3 = c2h2 + ch4 2.0E13  0  0.000000 
  c2h2 + oh = c2h + h2o 3.37E7  2  14000.000000 
  c2h2 + oh = hccoh + h 504000.0  2.2999999999999998  13500.000000 
  c2h2 + oh = ch2co + h 2.1799999999999999E-4  4.5  -1000.000000 
DUPLICATE
  c2h2 + oh = ch2co + h 2.0E11  0  0.000000 
DUPLICATE
  c2h2 + oh = ch3 + co 4.83E-4  4  -2000.000000 
  hccoh + h = ch2co + h 1.0E13  0  0.000000 
  c2h2 + o = ch2 + co 6120000.0  2  1900.000000 
  c2h2 + o = hcco + h 1.43E7  2  1900.000000 
  c2h2 + o = c2h + oh 3.16E15  -0.59999999999999998  15000.000000 
  c2h2 + ch3 = c2h + ch4 1.81E11  0  17289.000000 
  c2h2 + o2 = hcco + oh 4.0E7  1.5  30100.000000 
  c2h2 + M = c2h + h + M 4.2E16  0  107000.000000 
  c2h2 + h (+ M) = c2h3 (+ M) 3.11E11  0.57999999999999996  2589.000000 
Low/2.25E40  -7.2690000000000001  6577.000000 /
  co/2/co2/3/h2/2/h2o/5/
Troe/1 1e-015 675 1e+015 /
  ch2hco + h = ch3 + hco 5.0E13  0  0.000000 
  ch2hco + h = ch2co + h2 2.0E13  0  0.000000 
  ch2hco + o = ch2o + hco 1.0E14  0  0.000000 
  ch2hco + oh = ch2co + h2o 3.0E13  0  0.000000 
  ch2hco + o2 = ch2o + co + oh 3.0E10  0  0.000000 
  ch2hco + ch3 = c2h5 + co + h 4.9E14  -0.5  0.000000 
  ch2hco + ho2 = ch2o + hco + oh 7.0E12  0  0.000000 
  ch2hco + ho2 = ch3hco + o2 3.0E12  0  0.000000 
  ch2hco = ch3 + co 1.17E43  -9.8300000000000001  43756.000000 
  ch2hco = ch2co + h 1.81E43  -9.6099999999999994  45868.000000 
  chocho (+ M) = ch2o + co (+ M) 4.27E12  0  50600.000000 
Low/8.91E16  0  49200.000000 /
  chocho = co + co + h2 4.07E42  -8.5  69278.000000 
  chocho + oh = hco + co + h2o 1.0E13  0  0.000000 
  chocho + o = hco + co + oh 7.24E12  0  1970.000000 
  chocho + h = ch2o + hco 1.0E12  0  0.000000 
  chocho + ho2 = hco + co + h2o2 1.7E12  0  10700.000000 
  chocho + ch3 = hco + co + ch4 1.74E12  0  8440.000000 
  chocho + o2 = hco + co + ho2 1.0E14  0  37000.000000 
  ch3co (+ M) = ch3 + co (+ M) 3.0E12  0  16722.000000 
Low/1.2E15  0  12518.000000 /
  ch2co + o = co2 + ch2 1.75E12  0  1350.000000 
  ch2co + h = ch3 + co 27100.0  2.75  714.000000 
  ch2co + h = hcco + h2 2.0E14  0  8000.000000 
  ch2co + o = hcco + oh 1.0E13  0  8000.000000 
  ch2co + oh = hcco + h2o 1.0E13  0  2000.000000 
  ch2co + oh = ch2oh + co 3.73E12  0  -1013.000000 
  ch2co (+ M) = ch2 + co (+ M) 3.0E14  0  70980.000000 
Low/3.6E15  0  59270.000000 /
  c2h + h2 = c2h2 + h 409000.0  2.3900000000000001  864.300000 
  c2h + o = ch + co 5.0E13  0  0.000000 
  c2h + oh = hcco + h 2.0E13  0  0.000000 
  c2h + o2 = co + co + h 9.04E12  0  -457.000000 
  hcco + c2h2 = h2ccch + co 1.0E11  0  3000.000000 
  hcco + h = ch2(s) + co 1.0E14  0  0.000000 
  hcco + o = h + co + co 8.0E13  0  0.000000 
  hcco + o = ch + co2 2.95E13  0  1113.000000 
  hcco + o2 = hco + co + o 2.5E8  1  0.000000 
  hcco + o2 = co2 + hco 2.4E11  0  -854.000000 
  hcco + ch = c2h2 + co 5.0E13  0  0.000000 
  hcco + hcco = c2h2 + co + co 1.0E13  0  0.000000 
  hcco + oh = c2o + h2o 3.0E13  0  0.000000 
  c2o + h = ch + co 1.0E13  0  0.000000 
  c2o + o = co + co 5.0E13  0  0.000000 
  c2o + oh = co + co + h 2.0E13  0  0.000000 
  c2o + o2 = co + co + o 2.0E13  0  0.000000 
  c3h8 (+ M) = c2h5 + ch3 (+ M) 7.9E22  -1.8  88629.000000 
Low/7.237E27  -2.8799999999999999  67448.000000 /
  co/2/co2/3/h2/2/h2o/5/
Troe/1 1e-015 1500 1e+015 /
  ic3h7 + ho2 = c3h8 + o2 3.0E12  0  0.000000 
  nc3h7 + ho2 = c3h8 + o2 3.0E12  0  0.000000 
  c3h8 + ho2 = nc3h7 + h2o2 47600.0  2.5499999999999998  16492.000000 
  c3h8 + ho2 = ic3h7 + h2o2 9640.0  2.6000000000000001  13909.000000 
  c3h8 + oh = nc3h7 + h2o 3.16E7  1.8  934.000000 
  c3h8 + oh = ic3h7 + h2o 7080000.0  1.8999999999999999  -159.000000 
  c3h8 + o = nc3h7 + oh 3730000.0  2.3999999999999999  5504.000000 
  c3h8 + o = ic3h7 + oh 548000.0  2.5  3139.000000 
  c3h8 + h = ic3h7 + h2 1300000.0  2.3999999999999999  4471.000000 
  c3h8 + h = nc3h7 + h2 1330000.0  2.54  6756.000000 
  c3h8 + ch3 = nc3h7 + ch4 0.9039999999999999  3.6499999999999999  7153.000000 
  c3h8 + ch3 = ic3h7 + ch4 1.51  3.46  5480.000000 
  c3h8 + c2h3 = ic3h7 + c2h4 1000.0  3.1000000000000001  8830.000000 
  c3h8 + c2h3 = nc3h7 + c2h4 600.0  3.2999999999999998  10500.000000 
  c3h8 + c2h5 = ic3h7 + c2h6 1.51  3.46  7470.000000 
  c3h8 + c2h5 = nc3h7 + c2h6 0.903  3.6499999999999999  9140.000000 
  c3h8 + ac3h5 = c3h6 + nc3h7 235.0  3.2999999999999998  19842.000000 
  c3h8 + ac3h5 = c3h6 + ic3h7 78.3  3.2999999999999998  18169.000000 
  nc3h7 (+ M) = c2h4 + ch3 (+ M) 1.23E13  -0.10000000000000001  30202.000000 
Low/5.485E49  -10  35766.000000 /
  co/2/co2/3/h2/2/h2o/5/
Troe/2.17 1e-015 251 1185 /
  c3h6 + h (+ M) = ic3h7 (+ M) 5.7E9  1.1599999999999999  874.000000 
Low/1.64E54  -11.1  9364.000000 /
  co/2/co2/3/h2/2/h2o/5/
Troe/1 1e-015 260 3000 /
  ic3h7 + o2 = c3h6 + ho2 1.88E20  -2.6899999999999999  7109.000000 
  nc3h7 + o2 = c3h6 + ho2 3.83E26  -4.4400000000000004  7724.000000 
  ic3h7 + h = c2h5 + ch3 5.0E13  0  0.000000 
  nc3h7 + h = c2h5 + ch3 1.0E14  0  0.000000 
  c3h6 = c2h2 + ch4 2.5E12  0  70000.000000 
  c3h6 = ac3h4 + h2 3.0E13  0  80000.000000 
  pc3h5 + h = c3h6 1.0E14  0  0.000000 
  sc3h5 + h = c3h6 1.0E14  0  0.000000 
  c3h6 + ho2 = ac3h5 + h2o2 9640.0  2.6000000000000001  13910.000000 
  c3h6 + oh = ac3h5 + h2o 3120000.0  2  -298.000000 
  c3h6 + oh = sc3h5 + h2o 1110000.0  2  1451.000000 
  c3h6 + oh = pc3h5 + h2o 2110000.0  2  2778.000000 
  c3h6 + o = ch3chco + h + h 5.01E7  1.76  76.000000 
  c3h6 + o = c2h5 + hco 1.58E7  1.76  -1216.000000 
  c3h6 + o = ac3h5 + oh 5.24E11  0.69999999999999996  5884.000000 
  c3h6 + o = pc3h5 + oh 1.2E11  0.69999999999999996  8959.000000 
  c3h6 + o = sc3h5 + oh 6.03E10  0.69999999999999996  7632.000000 
  c3h6 + h = c2h4 + ch3 7.23E12  0  1302.000000 
  c3h6 + h = ac3h5 + h2 173000.0  2.5  2492.000000 
  c3h6 + h = sc3h5 + h2 409000.0  2.5  9794.000000 
  c3h6 + h = pc3h5 + h2 804000.0  2.5  12284.000000 
  ac3h5 + ho2 = c3h6 + o2 3.0E12  0  0.000000 
  c3h6 + ch3 = ac3h5 + ch4 2.22  3.5  5675.000000 
  c3h6 + ch3 = sc3h5 + ch4 0.843  3.5  11656.000000 
  c3h6 + ch3 = pc3h5 + ch4 1.35  3.5  12848.000000 
  c3h6 + hco = ac3h5 + ch2o 1.08E7  1.8999999999999999  17010.000000 
  ch3chco + oh = ch2chco + h2o 4000000.0  2  0.000000 
  ch3chco + o = ch2chco + oh 7.6E8  1.5  8500.000000 
  ch3chco + h = ch2chco + h2 200000.0  2.5  2500.000000 
  ch3chco + h = c2h5 + co 2.0E13  0  2000.000000 
  ch3chco + o = ch3 + hco + co 3.0E7  2  0.000000 
  ch2chcho + oh = ch2chco + h2o 1.0E13  0  0.000000 
  ch2chcho + o = ch2chco + oh 7.24E12  0  1970.000000 
  ch2chcho + o = ch2co + hco + h 5.01E7  1.76  76.000000 
  ch2chcho + h = ch2chco + h2 3.98E13  0  4200.000000 
  ch2chcho + h = c2h4 + hco 2.0E13  0  3500.000000 
  ch2chcho + o2 = ch2chco + ho2 3.0E13  0  36000.000000 
  ch2chco = c2h3 + co 1.0E14  0  34000.000000 
  ch2chco + o = c2h3 + co2 1.0E14  0  0.000000 
  ac3h5 + o2 = ch2chcho + oh 1.82E13  -0.40999999999999998  22859.000000 
  ac3h5 + o2 = ac3h4 + ho2 4.99E15  -1.3999999999999999  22428.000000 
  ac3h5 + o2 = ch2hco + ch2o 1.06E10  0.34000000000000002  12838.000000 
  ac3h5 + o2 = c2h2 + ch2o + oh 2.78E25  -4.7999999999999998  15468.000000 
  ac3h5 + ho2 = ch2chch2o + oh 1.0E13  0  0.000000 
  ch2chch2o + o2 = ch2chcho + ho2 4.0E10  0  1100.000000 
  ch2chch2o + co = ac3h5 + co2 468.0  3.1600000000000001  5380.000000 
  ch2chcho + h (+ M) = ch2chch2o (+ M) 5.4E11  0.45400000000000001  2600.000000 
Low/1.5E30  -4.7999999999999998  5560.000000 /
  h2o/5/
Troe/0.78 94 1555 4200 /
  ac3h5 + oh = ac3h4 + h2o 1.0E13  0  0.000000 
  ac3h5 + h = ac3h4 + h2 5.0E13  0  0.000000 
  ac3h5 + h = c3h6 1.8800000000000002E26  -3.6000000000000001  5468.000000 
  ac3h5 + o = ch2chcho + h 1.81E14  0  0.000000 
  ac3h5 + ch3 = ac3h4 + ch4 3.02E12  -0.32000000000000001  -131.000000 
  pc3h5 + o2 = ch3hco + hco 1.09E23  -3.29  3892.000000 
  pc3h5 + o2 = ch3chco + h + o 1.6E15  -0.78000000000000003  3135.000000 
  pc3h5 + o = ch3chco + h 1.0E14  0  0.000000 
  pc3h5 + h = pc3h4 + h2 2.0E13  0  0.000000 
  pc3h5 + oh = pc3h4 + h2o 1.0E13  0  0.000000 
  pc3h5 + h = ac3h5 + h 1.0E14  0  0.000000 
  sc3h5 + h = ac3h5 + h 1.0E14  0  0.000000 
  sc3h5 + o2 = ch3co + ch2o 1.0899999999999999E22  -3.29  3892.000000 
  sc3h5 + o = ch2co + ch3 1.0E14  0  0.000000 
  sc3h5 + h = pc3h4 + h2 4.0E13  0  0.000000 
  sc3h5 + oh = pc3h4 + h2o 2.0E13  0  0.000000 
  ac3h4 + h = h2ccch + h2 2.0E7  2  5000.000000 
  ac3h4 + o = c2h4 + co 1.34E7  1.8799999999999999  179.000000 
  ac3h4 + oh = h2ccch + h2o 1.0E7  2  1000.000000 
  ac3h4 + ch3 = h2ccch + ch4 1.5  3.5  5600.000000 
  ac3h4 = pc3h4 1.48E13  0  60401.000000 
  pc3h4 + h = h2ccch + h2 2.0E7  2  5000.000000 
  pc3h4 + o = c2h4 + co 1.5E13  0  2102.000000 
  pc3h4 + oh = h2ccch + h2o 1.0E7  2  1000.000000 
  pc3h4 + ch3 = h2ccch + ch4 1.5  3.5  5600.000000 
  pc3h4 + h = ch3 + c2h2 5.12E10  1  2060.000000 
  pc3h4 + h (+ M) = sc3h5 (+ M) 6.5E12  0  2000.000000 
Low/8.45E39  -7.2699999999999996  6577.000000 /
  ac3h4 + h (+ M) = ac3h5 (+ M) 1.2E11  0.68999999999999995  3007.000000 
Low/5.56E33  -5  4448.000000 /
  ac3h4 + h (+ M) = sc3h5 (+ M) 8.49E12  0  2000.000000 
Low/1.11E34  -5  4448.000000 /
  h2ccch + o2 = ch2co + hco 3.0E10  0  2868.000000 
  h2ccch + o = ch2o + c2h 1.4E14  0  0.000000 
  h2ccch + h = c3h2 + h2 5.0E13  0  1000.000000 
  h2ccch + oh = c3h2 + h2o 2.0E13  0  0.000000 
  h2ccch + ch3 = c3h2 + ch4 2.0E13  0  0.000000 
  h2ccch + h (+ M) = ac3h4 (+ M) 1.66E15  -0.37  0.000000 
Low/3.36E45  -8.5199999999999996  6293.000000 /
  c2h2/2/co/2/co2/3/h2/2/h2o/5/o2/2/
  h2ccch + h (+ M) = pc3h4 (+ M) 1.66E15  -0.37  0.000000 
Low/8.78E45  -8.9000000000000004  7974.000000 /
  c2h2/2/co/2/co2/3/h2/2/h2o/5/o2/2/
  c3h2 + o2 = hcco + co + h 2.0E12  0  1000.000000 
  c3h2 + o = c2h2 + co 1.0E14  0  0.000000 
  c3h2 + oh = c2h2 + hco 5.0E13  0  0.000000 
END
