ELEMENTS
H O NA CL
END
SPEC
H2O
NACL
END
REAC
END

