ELEMENTS
H O NA CL
END
SPEC
H20
NACL
END
REAC
END

