ELEMENTS
O  H  C  N  AR
END
SPECIES
C2H4 O2 N2 H2O CO2 H O OH HO2 H2 CO H2O2 HCO CH2O CH3 CH2 C2H6 C2H5 CH4 C2H3 
C2H2 CH2CO HCCO C2H A1 A2 A7 l-C6H4 C5H6 C5H5 PC3H4 C3H3 C3H2 aC3H5 C3H6 I-C3H7 
C3H8 C4H2 C4H6 n-C4H5 n-C4H3 CH2* H2CC CH3CHO AC3H4 CH3CHCH CH3O CH n-C3H7 
C4H81 C6H2 C4H4 CH2CHO CH2OH CH3OH CH3CCH2 H2C4O i-C4H3 i-C4H5 C4H612 C6H3 
c-C6H4 C6H5O C6H5OH C5H4O C5H4OH AR  
END
REACTIONS
 H+O2 = O+OH                              8.300E+13    0.000  14413.00
END
